NOVO24/1726523/Linhas.dss
! ==========================================================
! LINHAS — geradas de SSDMT
! Barras = PAC_1 / PAC_2 da BDGD (preservados)
! ==========================================================
New Line.245951952 Bus1=node_435555327.1.2.3 Bus2=node_435555328.1.2.3 LineCode=CND_51_3F Length=130.94 Units=m
New Line.245953408 Bus1=node_435876093.3 Bus2=node_435875719.3 LineCode=CND_926_1F Length=150.76 Units=m
New Line.244839391 Bus1=node_430600677.3 Bus2=node_430601752.3 LineCode=CND_907_1F Length=148.63 Units=m
New Line.537858052 Bus1=node_807903893.2 Bus2=node_807903904.2 LineCode=CND_910_1F Length=95.38 Units=m
New Line.245952241 Bus1=node_435556772.3 Bus2=node_431558951.3 LineCode=CND_926_1F Length=128.86 Units=m
New Line.245952546 Bus1=node_435557248.3 Bus2=node_435716529.3 LineCode=CND_926_1F Length=155.12 Units=m
New Line.245801380 Bus1=node_435553917.1.2.3 Bus2=node_435553907.1.2.3 LineCode=CND_51_3F Length=139.81 Units=m
New Line.244990990 Bus1=node_430912208.2 Bus2=node_430913191.2 LineCode=CND_907_1F Length=129.85 Units=m
New Line.247195894 Bus1=node_442161677.1 Bus2=node_442161678.1 LineCode=CND_907_1F Length=123.53 Units=m
New Line.245952212 Bus1=node_435556627.2 Bus2=node_431555611.2 LineCode=CND_926_1F Length=62.01 Units=m
New Line.244836358 Bus1=node_1392596581.1.2.3 Bus2=node_425254223.1.2.3 LineCode=CND_11_3F Length=143.49 Units=m
New Line.243831790 Bus1=node_425254213.1.2.3 Bus2=node_425254214.1.2.3 LineCode=CND_13_3F Length=80.02 Units=m
New Line.245464890 Bus1=node_433604967.1.2.3 Bus2=node_2871224737.1.2.3 LineCode=CND_51_3F Length=102.80 Units=m
New Line.245150193 Bus1=node_431722175.2 Bus2=node_431558106.2 LineCode=CND_907_1F Length=125.79 Units=m
New Line.246271619 Bus1=node_437456402.2 Bus2=node_437458617.2 LineCode=CND_907_1F Length=218.22 Units=m
New Line.505502670 Bus1=node_775655683.3 Bus2=node_775655695.3 LineCode=CND_910_1F Length=103.55 Units=m
New Line.245954800 Bus1=node_436020469.1.2.3 Bus2=node_436020334.1.2.3 LineCode=CND_51_3F Length=102.01 Units=m
New Line.245951745 Bus1=node_435407234.1 Bus2=node_435554293.1 LineCode=CND_926_1F Length=98.02 Units=m
New Line.245954443 Bus1=node_436018684.1.2.3 Bus2=node_436018664.1.2.3 LineCode=CND_51_3F Length=135.94 Units=m
New Line.245955010 Bus1=node_436021223.3 Bus2=node_435878322.3 LineCode=CND_926_1F Length=140.32 Units=m
New Line.245465166 Bus1=node_433606352.1.2.3 Bus2=node_433606353.1.2.3 LineCode=CND_11_3F Length=105.68 Units=m
New Line.246114754 Bus1=node_437146618.1.2.3 Bus2=node_437146624.1.2.3 LineCode=CND_19_3F Length=36.62 Units=m
New Line.243831628 Bus1=node_425253306.1 Bus2=node_425253295.1 LineCode=CND_909_1F Length=34.99 Units=m
New Line.244839563 Bus1=node_430449904.2 Bus2=node_430600946.2 LineCode=CND_907_1F Length=125.69 Units=m
New Line.244838009 Bus1=node_430448755.1.2.3 Bus2=node_430448809.1.2.3 LineCode=CND_11_3F Length=127.39 Units=m
New Line.245952917 Bus1=node_435719046.3 Bus2=node_435718202.3 LineCode=CND_926_1F Length=125.80 Units=m
New Line.245954063 Bus1=node_429971426.1.2.3 Bus2=node_429971531.1.2.3 LineCode=CND_51_3F Length=82.14 Units=m
New Line.244839019 Bus1=node_430598228.2 Bus2=node_430599892.2 LineCode=CND_907_1F Length=131.17 Units=m
New Line.245798370 Bus1=node_434916121.1.2.3 Bus2=node_434916122.1.2.3 LineCode=CND_30_3F Length=97.02 Units=m
New Line.245953949 Bus1=node_435878802.2 Bus2=node_435878803.2 LineCode=CND_926_1F Length=152.42 Units=m
New Line.244675591 Bus1=node_429817067.3 Bus2=node_429817068.3 LineCode=CND_907_1F Length=126.87 Units=m
New Line.245149099 Bus1=node_431404460.1 Bus2=node_431557812.1 LineCode=CND_907_1F Length=76.15 Units=m
New Line.245955275 Bus1=node_436181415.1.2.3 Bus2=node_436180795.1.2.3 LineCode=CND_51_3F Length=141.15 Units=m
New Line.244994054 Bus1=node_431405067.1 Bus2=node_431405217.1 LineCode=CND_907_1F Length=127.61 Units=m
New Line.244993281 Bus1=node_431401331.2 Bus2=node_431401332.2 LineCode=CND_907_1F Length=114.70 Units=m
New Line.245951737 Bus1=node_435407274.1.2.3 Bus2=node_435407138.1.2.3 LineCode=CND_51_3F Length=143.84 Units=m
New Line.986396581 Bus1=node_1595943000.3 Bus2=node_1595942990.3 LineCode=CND_907_1F Length=1.38 Units=m
New Line.246114792 Bus1=node_437146813.2 Bus2=node_437146814.2 LineCode=CND_907_1F Length=111.29 Units=m
New Line.245954521 Bus1=node_436019070.2 Bus2=node_435879307.2 LineCode=CND_926_1F Length=132.06 Units=m
New Line.243831518 Bus1=node_425252832.1.2.3 Bus2=node_425252842.1.2.3 LineCode=CND_50_3F Length=31.93 Units=m
New Line.244991216 Bus1=node_430914324.2 Bus2=node_430914325.2 LineCode=CND_907_1F Length=98.30 Units=m
New Line.493612757 Bus1=node_763873144.1.2.3 Bus2=node_763873184.1.2.3 LineCode=CND_64_3F Length=108.73 Units=m
New Line.245951981 Bus1=node_428867606.1.2.3 Bus2=node_435555473.1.2.3 LineCode=CND_51_3F Length=129.49 Units=m
New Line.245150172 Bus1=node_431722070.1 Bus2=node_431722071.1 LineCode=CND_907_1F Length=83.30 Units=m
New Line.245801230 Bus1=node_435407163.2 Bus2=node_435407164.2 LineCode=CND_926_1F Length=105.53 Units=m
New Line.244839469 Bus1=node_428698656.2 Bus2=node_430602142.2 LineCode=CND_907_1F Length=136.43 Units=m
New Line.244837938 Bus1=node_430448474.3 Bus2=node_430448475.3 LineCode=CND_907_1F Length=134.66 Units=m
New Line.1414916281 Bus1=node_1712272113.3 Bus2=node_1712272124.3 LineCode=CND_907_1F Length=250.70 Units=m
New Line.245952452 Bus1=node_435716704.2 Bus2=node_435716708.2 LineCode=CND_926_1F Length=147.76 Units=m
New Line.244993618 Bus1=node_431403024.3 Bus2=node_431403025.3 LineCode=CND_907_1F Length=128.92 Units=m
New Line.245952118 Bus1=node_435556157.1.2.3 Bus2=node_431558676.1.2.3 LineCode=CND_51_3F Length=131.52 Units=m
New Line.245954100 Bus1=node_435878623.2 Bus2=node_435879432.2 LineCode=CND_926_1F Length=142.58 Units=m
New Line.246114758 Bus1=node_437146643.1.2.3 Bus2=node_437146644.1.2.3 LineCode=CND_19_3F Length=36.41 Units=m
New Line.244839486 Bus1=node_430602226.3 Bus2=node_430449818.3 LineCode=CND_907_1F Length=119.56 Units=m
New Line.245800248 Bus1=node_435247625.1.2.3 Bus2=node_435247626.1.2.3 LineCode=CND_51_3F Length=77.33 Units=m
New Line.245801398 Bus1=node_435554007.3 Bus2=node_435553972.3 LineCode=CND_926_1F Length=134.65 Units=m
New Line.353971800 Bus1=100_353950738.1.2.3 Bus2=node_425253400.1.2.3 LineCode=CND_50_3F Length=35.86 Units=m
New Line.245801329 Bus1=node_435553643.1.2.3 Bus2=node_435553657.1.2.3 LineCode=CND_51_3F Length=165.95 Units=m
New Line.245534446 Bus1=node_434103069.1.2.3 Bus2=node_434103064.1.2.3 LineCode=CND_20_3F Length=32.70 Units=m
New Line.244837270 Bus1=node_430289972.3 Bus2=node_429657299.3 LineCode=CND_907_1F Length=105.19 Units=m
New Line.244990326 Bus1=node_430754457.2 Bus2=node_430755231.2 LineCode=CND_907_1F Length=81.56 Units=m
New Line.245149568 Bus1=node_431718979.3 Bus2=node_431719028.3 LineCode=CND_907_1F Length=150.97 Units=m
New Line.245466391 Bus1=node_433766064.3 Bus2=node_433917364.3 LineCode=CND_907_1F Length=182.09 Units=m
New Line.244675980 Bus1=node_429819016.2 Bus2=node_429818556.2 LineCode=CND_907_1F Length=137.02 Units=m
New Line.578225855 Bus1=node_846652419.1 Bus2=node_846653080.1 LineCode=CND_910_1F Length=2.08 Units=m
New Line.246270183 Bus1=node_437313965.1 Bus2=node_437314019.1 LineCode=CND_907_1F Length=134.18 Units=m
New Line.1629758139 Bus1=node_1949975433.1 Bus2=node_1949975426.1 LineCode=CND_907_1F Length=104.16 Units=m
New Line.244675572 Bus1=node_429816972.1.2.3 Bus2=node_429816973.1.2.3 LineCode=CND_11_3F Length=127.50 Units=m
New Line.244990380 Bus1=node_430755540.2 Bus2=node_430755206.2 LineCode=CND_907_1F Length=138.14 Units=m
New Line.244835475 Bus1=node_429971927.2 Bus2=node_429972392.2 LineCode=CND_907_1F Length=122.49 Units=m
New Line.244835980 Bus1=node_429974897.2 Bus2=node_429974906.2 LineCode=CND_907_1F Length=70.43 Units=m
New Line.245466056 Bus1=node_433765398.1 Bus2=node_426878717.1 LineCode=CND_907_1F Length=107.95 Units=m
New Line.617017824 Bus1=node_884997938.1 Bus2=node_884997946.1 LineCode=CND_907_1F Length=39.51 Units=m
New Line.245953683 Bus1=node_435877468.2 Bus2=node_435877469.2 LineCode=CND_926_1F Length=84.13 Units=m
New Line.244990591 Bus1=node_430756595.3 Bus2=node_430755311.3 LineCode=CND_907_1F Length=87.96 Units=m
New Line.245149991 Bus1=node_431720748.2 Bus2=node_431556111.2 LineCode=CND_907_1F Length=185.58 Units=m
New Line.244836741 Bus1=node_430141901.1.2.3 Bus2=node_2871224073.1.2.3 LineCode=CND_51_3F Length=127.86 Units=m
New Line.244838720 Bus1=node_428697346.3 Bus2=node_430598322.3 LineCode=CND_907_1F Length=91.35 Units=m
New Line.245798169 Bus1=node_434915107.1.2.3 Bus2=node_434915111.1.2.3 LineCode=CND_30_3F Length=110.82 Units=m
New Line.244994024 Bus1=node_428699461.1 Bus2=node_431405067.1 LineCode=CND_907_1F Length=128.12 Units=m
New Line.244675449 Bus1=node_428696378.1.2.3 Bus2=node_429657354.1.2.3 LineCode=CND_11_3F Length=104.85 Units=m
New Line.244839298 Bus1=node_430601286.1.2.3 Bus2=node_430601287.1.2.3 LineCode=CND_11_3F Length=131.78 Units=m
New Line.244839291 Bus1=node_430601251.3 Bus2=node_430601252.3 LineCode=CND_907_1F Length=83.84 Units=m
New Line.245955214 Bus1=node_436181429.2 Bus2=node_429818846.2 LineCode=CND_926_1F Length=149.14 Units=m
New Line.246272905 Bus1=node_437791394.3 Bus2=node_437791239.3 LineCode=CND_907_1F Length=42.49 Units=m
New Line.245954258 Bus1=node_436017596.1 Bus2=node_435877768.1 LineCode=CND_926_1F Length=146.13 Units=m
New Line.244839317 Bus1=node_430601381.2 Bus2=node_430601382.2 LineCode=CND_907_1F Length=135.02 Units=m
New Line.245953929 Bus1=node_435878698.3 Bus2=node_435878703.3 LineCode=CND_926_1F Length=62.37 Units=m
New Line.244993853 Bus1=node_1525933913.1.2.3 Bus2=node_431404200.1.2.3 LineCode=CND_30_3F Length=114.23 Units=m
New Line.245800023 Bus1=node_433765803.3 Bus2=node_435246483.3 LineCode=CND_926_1F Length=3.61 Units=m
New Line.244523987 Bus1=node_428698211.2 Bus2=node_428698212.2 LineCode=CND_902_1F Length=36.39 Units=m
New Line.245953103 Bus1=node_435719976.1.2.3 Bus2=node_435719576.1.2.3 LineCode=CND_51_3F Length=144.20 Units=m
New Line.245954935 Bus1=node_436021084.1.2.3 Bus2=node_429820671.1.2.3 LineCode=CND_51_3F Length=52.11 Units=m
New Line.244990494 Bus1=node_430754722.2 Bus2=node_430755835.2 LineCode=CND_907_1F Length=110.47 Units=m
New Line.245798063 Bus1=node_426878758.1.2.3 Bus2=node_2157297455.1.2.3 LineCode=CND_20_3F Length=24.32 Units=m
New Line.245953984 Bus1=node_435877339.2 Bus2=node_435878877.2 LineCode=CND_926_1F Length=144.30 Units=m
New Line.246272942 Bus1=node_437791575.2 Bus2=node_437791554.2 LineCode=CND_907_1F Length=136.53 Units=m
New Line.244836138 Bus1=node_428698041.3 Bus2=node_430138848.3 LineCode=CND_907_1F Length=92.16 Units=m
New Line.247344689 Bus1=node_442755370.3 Bus2=node_442313397.3 LineCode=CND_907_1F Length=146.40 Units=m
New Line.245952457 Bus1=node_435716738.1.2.3 Bus2=node_435716739.1.2.3 LineCode=CND_51_3F Length=141.29 Units=m
New Line.537858082 Bus1=node_807903959.2 Bus2=node_807903970.2 LineCode=CND_910_1F Length=361.49 Units=m
New Line.245466064 Bus1=node_433606743.2 Bus2=node_433765160.2 LineCode=CND_907_1F Length=99.68 Units=m
New Line.986396535 Bus1=node_430139629.3 Bus2=node_1595943257.3 LineCode=CND_907_1F Length=2.14 Units=m
New Line.244676336 Bus1=node_429820787.2 Bus2=node_429820797.2 LineCode=CND_907_1F Length=133.35 Units=m
New Line.243831444 Bus1=node_425252471.1.2.3 Bus2=node_425252472.1.2.3 LineCode=CND_50_3F Length=32.89 Units=m
New Line.2627979805 Bus1=node_2783676400.2 Bus2=node_2783676361.2 LineCode=CND_907_1F Length=171.93 Units=m
New Line.245801192 Bus1=node_435406973.1 Bus2=node_435406668.1 LineCode=CND_926_1F Length=152.29 Units=m
New Line.244990198 Bus1=node_430754626.1 Bus2=node_430754246.1 LineCode=CND_907_1F Length=154.15 Units=m
New Line.244676273 Bus1=node_429820407.3 Bus2=node_429820482.3 LineCode=CND_907_1F Length=131.71 Units=m
New Line.244837882 Bus1=node_430448189.2 Bus2=node_430448195.2 LineCode=CND_907_1F Length=29.65 Units=m
New Line.244993823 Bus1=node_2217907286.1.2.3 Bus2=node_431404050.1.2.3 LineCode=CND_11_3F Length=134.07 Units=m
New Line.244990968 Bus1=node_428868114.1.2.3 Bus2=node_430913077.1.2.3 LineCode=CND_11_3F Length=126.72 Units=m
New Line.245954961 Bus1=node_429972996.2 Bus2=node_435879637.2 LineCode=CND_926_1F Length=120.12 Units=m
New Line.246273280 Bus1=node_437793277.3 Bus2=node_437793278.3 LineCode=CND_907_1F Length=161.02 Units=m
New Line.245954238 Bus1=node_435877209.3 Bus2=node_436017656.3 LineCode=CND_926_1F Length=75.69 Units=m
New Line.245953290 Bus1=node_435875495.1.2.3 Bus2=node_435875496.1.2.3 LineCode=CND_51_3F Length=4.34 Units=m
New Line.245953600 Bus1=node_428697716.1.2.3 Bus2=node_430291425.1.2.3 LineCode=CND_51_3F Length=141.77 Units=m
New Line.245952662 Bus1=node_435717767.2 Bus2=node_435717652.2 LineCode=CND_926_1F Length=52.89 Units=m
New Line.244676261 Bus1=node_429818192.1 Bus2=node_429820422.1 LineCode=CND_907_1F Length=142.92 Units=m
New Line.244990660 Bus1=node_430911528.2 Bus2=node_430911529.2 LineCode=CND_907_1F Length=177.60 Units=m
New Line.245955455 Bus1=node_436182630.1 Bus2=node_436181914.1 LineCode=CND_926_1F Length=123.30 Units=m
New Line.245800135 Bus1=node_435247047.2 Bus2=node_435247057.2 LineCode=CND_926_1F Length=83.04 Units=m
New Line.2734194657 Bus1=node_2931301864.1.2.3 Bus2=node_2931301889.1.2.3 LineCode=CND_30_3F Length=96.84 Units=m
New Line.245798382 Bus1=node_434916057.1.2.3 Bus2=node_434916126.1.2.3 LineCode=CND_30_3F Length=88.35 Units=m
New Line.244676088 Bus1=node_429818402.2 Bus2=node_429819516.2 LineCode=CND_907_1F Length=137.17 Units=m
New Line.245150046 Bus1=node_431721436.3 Bus2=node_431721437.3 LineCode=CND_907_1F Length=151.45 Units=m
New Line.244349844 Bus1=node_428209641.3 Bus2=node_428209451.3 LineCode=CND_911_1F Length=40.17 Units=m
New Line.244838607 Bus1=node_430451831.2 Bus2=node_430451832.2 LineCode=CND_907_1F Length=108.43 Units=m
New Line.247344853 Bus1=node_442756190.2 Bus2=node_442755945.2 LineCode=CND_907_1F Length=103.44 Units=m
New Line.245801082 Bus1=node_435406423.1 Bus2=node_435406424.1 LineCode=CND_926_1F Length=102.49 Units=m
New Line.243833293 Bus1=node_425583563.1.2.3 Bus2=node_425583522.1.2.3 LineCode=CND_50_3F Length=37.16 Units=m
New Line.909465058 Bus1=node_1175044917.2 Bus2=node_1175044928.2 LineCode=CND_910_1F Length=125.70 Units=m
New Line.467895773 Bus1=node_737657874.2 Bus2=node_737657885.2 LineCode=CND_910_1F Length=207.33 Units=m
New Line.244837331 Bus1=node_430290855.3 Bus2=node_430290800.3 LineCode=CND_907_1F Length=133.55 Units=m
New Line.244524196 Bus1=node_428699256.1.2.3 Bus2=node_428699257.1.2.3 LineCode=CND_19_3F Length=113.24 Units=m
New Line.244838073 Bus1=node_430449025.2 Bus2=node_430449154.2 LineCode=CND_907_1F Length=104.89 Units=m
New Line.245798094 Bus1=node_434914737.1.2.3 Bus2=node_430756355.1.2.3 LineCode=CND_30_3F Length=123.50 Units=m
New Line.245954829 Bus1=node_436020614.3 Bus2=node_436020615.3 LineCode=CND_926_1F Length=387.74 Units=m
New Line.245954413 Bus1=node_436018534.1.2.3 Bus2=node_430291525.1.2.3 LineCode=CND_51_3F Length=183.99 Units=m
New Line.244836992 Bus1=node_429657305.2 Bus2=node_430289157.2 LineCode=CND_907_1F Length=84.13 Units=m
New Line.245150069 Bus1=node_431721551.3 Bus2=node_431721552.3 LineCode=CND_907_1F Length=196.05 Units=m
New Line.244837517 Bus1=node_430291785.1.2.3 Bus2=node_430291786.1.2.3 LineCode=CND_11_3F Length=57.61 Units=m
New Line.245955749 Bus1=node_436184055.3 Bus2=node_436183029.3 LineCode=CND_926_1F Length=159.59 Units=m
New Line.245150263 Bus1=node_431722525.3 Bus2=node_431556496.3 LineCode=CND_907_1F Length=139.40 Units=m
New Line.244990489 Bus1=node_430756085.3 Bus2=node_430756065.3 LineCode=CND_907_1F Length=140.45 Units=m
New Line.245466336 Bus1=node_433765141.1 Bus2=node_433765249.1 LineCode=CND_907_1F Length=132.95 Units=m
New Line.974188562 Bus1=node_1236371721.1 Bus2=node_1236371716.1 LineCode=CND_907_1F Length=96.83 Units=m
New Line.244837282 Bus1=node_430289542.2 Bus2=node_430142261.2 LineCode=CND_907_1F Length=126.35 Units=m
New Line.548695910 Bus1=node_807905820.2 Bus2=node_818286112.2 LineCode=CND_910_1F Length=9.49 Units=m
New Line.244994029 Bus1=node_851320160.2 Bus2=node_431405092.2 LineCode=CND_907_1F Length=105.92 Units=m
New Line.245955819 Bus1=node_430289836.3 Bus2=node_436184455.3 LineCode=CND_926_1F Length=153.27 Units=m
New Line.247196200 Bus1=node_442313497.3 Bus2=node_442313407.3 LineCode=CND_907_1F Length=116.29 Units=m
New Line.511673070 Bus1=node_781808661.1 Bus2=node_781808672.1 LineCode=CND_907_1F Length=123.53 Units=m
New Line.245798187 Bus1=node_434915192.1.2.3 Bus2=node_434915176.1.2.3 LineCode=CND_20_3F Length=38.01 Units=m
New Line.244994091 Bus1=node_431555691.2 Bus2=node_431555692.2 LineCode=CND_907_1F Length=209.32 Units=m
New Line.245953829 Bus1=node_429974136.1.2.3 Bus2=node_428697846.1.2.3 LineCode=CND_51_3F Length=143.43 Units=m
New Line.246269660 Bus1=node_425252567.1 Bus2=node_425252586.1 LineCode=CND_902_1F Length=31.36 Units=m
New Line.244990225 Bus1=node_430754761.3 Bus2=node_430754762.3 LineCode=CND_907_1F Length=123.86 Units=m
New Line.245148847 Bus1=node_431556547.3 Bus2=node_431556552.3 LineCode=CND_907_1F Length=151.45 Units=m
New Line.246269750 Bus1=node_437148649.1.2.3 Bus2=node_437148684.1.2.3 LineCode=CND_19_3F Length=39.40 Units=m
New Line.244990408 Bus1=node_428698971.2 Bus2=node_430755681.2 LineCode=CND_907_1F Length=69.17 Units=m
New Line.244675319 Bus1=node_429656795.1.2.3 Bus2=node_429656749.1.2.3 LineCode=CND_11_3F Length=132.04 Units=m
New Line.244837713 Bus1=node_430292765.3 Bus2=node_430292766.3 LineCode=CND_907_1F Length=135.51 Units=m
New Line.245954514 Bus1=node_436019039.1.2.3 Bus2=node_435877967.1.2.3 LineCode=CND_51_3F Length=104.90 Units=m
New Line.244524095 Bus1=node_428698751.2 Bus2=node_428698752.2 LineCode=CND_902_1F Length=72.61 Units=m
New Line.244675847 Bus1=node_429818282.2 Bus2=node_429818352.2 LineCode=CND_907_1F Length=133.14 Units=m
New Line.244839045 Bus1=node_430600021.3 Bus2=node_430292100.3 LineCode=CND_907_1F Length=153.95 Units=m
New Line.245952885 Bus1=node_435718877.3 Bus2=node_435718792.3 LineCode=CND_926_1F Length=162.23 Units=m
New Line.245952831 Bus1=node_435718612.1.2.3 Bus2=node_435718613.1.2.3 LineCode=CND_51_3F Length=144.83 Units=m
New Line.244990397 Bus1=node_430755625.2 Bus2=node_430755626.2 LineCode=CND_907_1F Length=145.57 Units=m
New Line.245801376 Bus1=node_435553897.2 Bus2=node_435553898.2 LineCode=CND_926_1F Length=139.70 Units=m
New Line.245798380 Bus1=node_434916082.1.2.3 Bus2=node_434916172.1.2.3 LineCode=CND_30_3F Length=118.45 Units=m
New Line.244993626 Bus1=node_431402611.3 Bus2=node_431402365.3 LineCode=CND_907_1F Length=139.95 Units=m
New Line.245798449 Bus1=node_434916516.1 Bus2=node_434916517.1 LineCode=CND_911_1F Length=42.55 Units=m
New Line.244837367 Bus1=node_430139978.2 Bus2=node_430139902.2 LineCode=CND_907_1F Length=134.81 Units=m
New Line.245150192 Bus1=node_431722116.1 Bus2=node_431722135.1 LineCode=CND_907_1F Length=147.90 Units=m
New Line.244835919 Bus1=node_429974611.2 Bus2=node_429971946.2 LineCode=CND_907_1F Length=136.19 Units=m
New Line.244835566 Bus1=node_429816828.1.2.3 Bus2=node_429820431.1.2.3 LineCode=CND_11_3F Length=93.73 Units=m
New Line.244838791 Bus1=node_430598588.1.2.3 Bus2=node_430598748.1.2.3 LineCode=CND_11_3F Length=126.55 Units=m
New Line.1391493652 Bus1=node_1686493242.1.2.3 Bus2=100_1391493712.1.2.3 LineCode=CND_144_3F Length=1.33 Units=m
New Line.244837884 Bus1=node_430448199.3 Bus2=node_430448205.3 LineCode=CND_907_1F Length=137.97 Units=m
New Line.245150257 Bus1=node_431722126.1 Bus2=node_431722496.1 LineCode=CND_907_1F Length=98.74 Units=m
New Line.245465522 Bus1=node_429657245.2 Bus2=node_433762717.2 LineCode=CND_907_1F Length=89.03 Units=m
New Line.245800250 Bus1=node_435247635.1.2.3 Bus2=node_435247636.1.2.3 LineCode=CND_51_3F Length=105.10 Units=m
New Line.245149225 Bus1=node_431558441.3 Bus2=node_431558442.3 LineCode=CND_907_1F Length=104.76 Units=m
New Line.245952829 Bus1=node_430755925.1.2.3 Bus2=node_435718587.1.2.3 LineCode=CND_51_3F Length=190.96 Units=m
New Line.354011675 Bus1=100_354010332.1.2.3 Bus2=node_435246933.1.2.3 LineCode=CND_51_3F Length=11.32 Units=m
New Line.244838711 Bus1=node_430598288.2 Bus2=node_430598307.2 LineCode=CND_907_1F Length=48.47 Units=m
New Line.245464906 Bus1=node_433605052.2 Bus2=node_433605053.2 LineCode=CND_907_1F Length=98.09 Units=m
New Line.245148931 Bus1=node_430290801.3 Bus2=node_431556466.3 LineCode=CND_907_1F Length=139.52 Units=m
New Line.246583291 Bus1=node_438740174.2 Bus2=node_438739548.2 LineCode=CND_907_1F Length=155.53 Units=m
New Line.779816304 Bus1=node_1052532840.2 Bus2=node_1052532851.2 LineCode=CND_907_1F Length=130.76 Units=m
New Line.244836731 Bus1=node_430141851.1 Bus2=node_425254078.1 LineCode=CND_907_1F Length=145.21 Units=m
New Line.245954543 Bus1=node_436019184.2 Bus2=node_430142695.2 LineCode=CND_926_1F Length=127.68 Units=m
New Line.245800137 Bus1=node_435247057.2 Bus2=node_435246817.2 LineCode=CND_926_1F Length=96.72 Units=m
New Line.534087937 Bus1=node_804168180.3 Bus2=node_804168191.3 LineCode=CND_910_1F Length=93.38 Units=m
New Line.245465775 Bus1=node_433763981.2 Bus2=node_433763982.2 LineCode=CND_907_1F Length=89.04 Units=m
New Line.245800245 Bus1=node_435247122.1.2.3 Bus2=node_435247106.1.2.3 LineCode=CND_51_3F Length=125.27 Units=m
New Line.992313365 Bus1=node_1274291828.1.2.3 Bus2=node_1274291829.1.2.3 LineCode=CND_50_3F Length=1.94 Units=m
New Line.244675594 Bus1=node_429817072.3 Bus2=node_429817083.3 LineCode=CND_907_1F Length=87.17 Units=m
...
